examples/cigre/opendss/Caso_L1_M4cs_T1_R1_D3_VLN_Node.Txt

LINE-GROUND and LINE-LINE VOLTAGES BY BUS & NODE

Bus        Node    VLN (kV)   Angle      pu     Base kV    Node-Node   VLL (kV)  Angle      pu

SOURCEBUS1 1            0 /_    0.0         0    20.000        1-2          0 /_    0.0         0
   -       2            0 /_    0.0         0    20.000        2-3          0 /_    0.0         0
   -       3            0 /_    0.0         0    20.000        3-1          0 /_    0.0         0
SOURCEBUS  1            0 /_    0.0         0    20.000        1-2          0 /_    0.0         0
   -       2            0 /_    0.0         0    20.000        2-3          0 /_    0.0         0
   -       3            0 /_    0.0         0    20.000        3-1          0 /_    0.0         0
   -       4            0 /_    0.0         0    20.000
FINAL .... 1            0 /_    0.0         0    20.000        1-2          0 /_    0.0         0
   -       2            0 /_    0.0         0    20.000        2-3          0 /_    0.0         0
   -       3            0 /_    0.0         0    20.000        3-1          0 /_    0.0         0
   -       4            0 /_    0.0         0    20.000
